[General]
network = ned.DhcpNetwork
sim-time-limit = 20s
