[General]
network = ned.PointToPointNetwork
sim-time-limit = 10s
